
 &NAMLST
   TEST=FALSE, DOVTMP= TRUE
 /

     THESE CARDS VALID FOR SSI/GFS VERSION OF CQCBUFR

