
 &NAMLST
   TEST=FALSE, DOVTMP= TRUE
 /

     THESE CARDS VALID FOR GSI/WDAS VERSION OF CQCBUFR

