
 &NAMLST
   TEST=FALSE, DOVTMP= TRUE
 /

     THESE CARDS VALID FOR SSI/GDAS VERSION OF CQCBUFR

