
 &NAMLST
   TEST=FALSE, DOVTMP= TRUE
 /

     THESE CARDS VALID FOR GSI/WFS VERSION OF CQCBUFR

